data/sourcebus_11000.trafo_75617582_75617582/voltage_profile.csv
Bus, BasekV, Node1, Magnitude1, Angle1, pu1, Node2, Magnitude2, Angle2, pu2, Node3, Magnitude3, Angle3, pu3
"TRAFO_75617582_75617582", 11, 1,    6350.85,    0.0,         1, 2,    6350.85, -120.0,         1, 3,    6350.85,  120.0,         1
"3102652", 0.4, 2,          0,    0.0,         0, 0, 0, 0, 0, 0, 0, 0, 0
"3105843", 0.4, 2,          0,    0.0,         0, 0, 0, 0, 0, 0, 0, 0, 0
"3102962", 0.4, 1,          0,    0.0,         0, 2,          0,    0.0,         0, 0, 0, 0, 0
"3105095", 0.4, 2,          0,    0.0,         0, 0, 0, 0, 0, 0, 0, 0, 0
"3107301", 0.4, 2,          0,    0.0,         0, 0, 0, 0, 0, 0, 0, 0, 0
"3105182", 0.4, 2,          0,    0.0,         0, 0, 0, 0, 0, 0, 0, 0, 0
"3108602", 0.4, 2,          0,    0.0,         0, 0, 0, 0, 0, 0, 0, 0, 0
"SOURCEBUS_11000", 0.4, 1,          0,    0.0,         0, 2,          0,    0.0,         0, 0, 0, 0, 0
